Circuit: * Circuito practica 2 viernes transitorio

.OP point found by inspection.

Date: Fri Nov 24 02:20:37 2017
Total elapsed time: 0.094 seconds.

tnom = 27
temp = 27
method = modified trap
totiter = 2424
traniter = 2424
tranpoints = 1213
accept = 1183
rejected = 30
matrix size = 4
fillins = 0
solver = Normal
Matrix Compiler1: 100 bytes object code size  0.6/0.7/[0.6]
Matrix Compiler2: 248 bytes object code size  0.6/0.7/[0.6]

